Version 4
SHEET 1 880 680
WIRE 480 -32 32 -32
WIRE 576 -32 480 -32
WIRE 624 32 624 -48
WIRE 96 80 -128 80
WIRE 400 80 320 80
WIRE -16 112 -96 112
WIRE -16 144 -16 112
WIRE -16 144 -64 144
WIRE 96 144 -16 144
WIRE 480 160 480 -32
WIRE 624 160 624 96
WIRE -64 176 -64 144
WIRE -496 192 -496 144
WIRE 32 208 32 -32
WIRE 96 208 32 208
WIRE 400 208 320 208
WIRE -128 224 -128 80
WIRE 96 272 32 272
WIRE 576 272 576 -32
WIRE 624 272 624 240
WIRE 624 272 576 272
WIRE 624 304 624 272
WIRE -496 352 -496 272
WIRE -16 368 -16 144
WIRE 400 368 400 208
WIRE 400 368 -16 368
WIRE -64 432 -64 240
WIRE 624 464 624 384
WIRE -96 544 -96 112
WIRE 480 544 480 240
WIRE 480 544 -96 544
WIRE 624 576 624 528
FLAG -128 224 0
FLAG -64 432 0
FLAG 624 576 0
FLAG -496 352 0
FLAG -496 144 VCC
FLAG 400 80 VCC
FLAG 624 -48 VCC
FLAG 32 272 VCC
SYMBOL Misc\\NE555 208 176 R0
SYMATTR InstName U1
SYMBOL polcap -80 176 R0
WINDOW 3 24 56 Left 2
SYMATTR InstName C1
SYMATTR Value 10µ
SYMATTR Description Capacitor
SYMATTR Type cap
SYMATTR SpiceLine V=6.3 Irms=0 Rser=4 Lser=0
SYMBOL res 464 144 R0
SYMATTR InstName R1
SYMATTR Value 110K
SYMBOL res 608 144 R0
SYMATTR InstName R2
SYMATTR Value 110
SYMBOL res 608 288 R0
SYMATTR InstName R3
SYMATTR Value 110
SYMBOL LED 608 32 R0
SYMATTR InstName D1
SYMBOL LED 608 464 R0
SYMATTR InstName D2
SYMBOL voltage -496 176 R0
WINDOW 123 0 0 Left 2
WINDOW 39 0 0 Left 2
SYMATTR InstName V1
SYMATTR Value 3
TEXT -530 600 Left 2 !.tran 0 10 1
